
 *******************************************************************************

         NASA-GLENN CHEMICAL EQUILIBRIUM PROGRAM CEA2, MAY 21, 2004
                   BY  BONNIE MCBRIDE AND SANFORD GORDON
      REFS: NASA RP-1311, PART I, 1994 AND NASA RP-1311, PART II, 1996

 *******************************************************************************



  prob ro equilibrium
  
   ! iac problem
  o/f 6.910912
  p,atm = 4.897247
  pip 4.897296
  reac
    fuel  C32H66(a) wt%=100 t,k=298.15
    oxid  N2O wt%=100.  t,k=298.15
  output trace=1e-51
  end

 OPTIONS: TP=F  HP=F  SP=F  TV=F  UV=F  SV=F  DETN=F  SHOCK=F  REFL=F  INCD=F
 RKT=T  FROZ=F  EQL=T  IONS=F  SIUNIT=T  DEBUGF=F  SHKDBG=F  DETDBG=F  TRNSPT=F

 TRACE= 1.00E-51  S/R= 0.000000E+00  H/R= 0.000000E+00  U/R= 0.000000E+00

 Pc,BAR =     4.962136

 Pc/P =     4.8973

 SUBSONIC AREA RATIOS =

 SUPERSONIC AREA RATIOS =

 NFZ=  1  Mdot/Ac= 0.000000E+00  Ac/At= 0.000000E+00

    REACTANT          WT.FRAC   (ENERGY/R),K   TEMP,K  DENSITY
        EXPLODED FORMULA
 F: C32H66(a)        1.000000  -0.116399E+03   298.15  0.0000
          C 32.00000  H 66.00000
 O: N2O              1.000000   0.981417E+04   298.15  0.0000
          N  2.00000  O  1.00000

  SPECIES BEING CONSIDERED IN THIS SYSTEM
 (CONDENSED PHASE MAY HAVE NAME LISTED SEVERAL TIMES)
  LAST thermo.inp UPDATE:   10/22/02

  g 7/97  *C               tpis79  *CH              g 4/02  CH2            
  g 4/02  CH3              g11/00  CH2OH            g 7/00  CH3O           
  g 8/99  CH4              g 7/00  CH3OH            srd 01  CH3OOH         
  g 8/99  *CN              g12/99  CNN              tpis79  *CO            
  g 9/99  *CO2             tpis91  COOH             tpis91  *C2            
  g 6/01  C2H              g 1/91  C2H2,acetylene   g 5/01  C2H2,vinylidene
  g 4/02  CH2CO,ketene     g 3/02  O(CH)2O          srd 01  HO(CO)2OH      
  g 7/01  C2H3,vinyl       g 9/00  CH3CN            g 6/96  CH3CO,acetyl   
  g 1/00  C2H4             g 8/88  C2H4O,ethylen-o  g 8/88  CH3CHO,ethanal 
  g 6/00  CH3COOH          srd 01  OHCH2COOH        g 7/00  C2H5           
  g 7/00  C2H6             g 8/88  CH3N2CH3         g 8/88  C2H5OH         
  g 7/00  CH3OCH3          srd 01  CH3O2CH3         g 7/00  CCN            
  tpis91  CNC              srd 01  OCCN             tpis79  C2N2           
  g 8/00  C2O              tpis79  *C3              n 4/98  C3H3,1-propynl 
  n 4/98  C3H3,2-propynl   g 2/00  C3H4,allene      g 1/00  C3H4,propyne   
  g 5/90  C3H4,cyclo-      g 3/01  C3H5,allyl       g 2/00  C3H6,propylene 
  g 1/00  C3H6,cyclo-      g 6/01  C3H6O,propylox   g 6/97  C3H6O,acetone  
  g 1/02  C3H6O,propanal   g 7/01  C3H7,n-propyl    g 9/85  C3H7,i-propyl  
  g 2/00  C3H8             g 2/00  C3H8O,1propanol  g 2/00  C3H8O,2propanol
  srd 01  CNCOCN           g 7/88  C3O2             g tpis  *C4            
  g 7/01  C4H2,butadiyne   g 8/00  C4H4,1,3-cyclo-  n10/92  C4H6,butadiene 
  n10/93  C4H6,1butyne     n10/93  C4H6,2butyne     g 8/00  C4H6,cyclo-    
  n 4/88  C4H8,1-butene    n 4/88  C4H8,cis2-buten  n 4/88  C4H8,tr2-butene
  n 4/88  C4H8,isobutene   g 8/00  C4H8,cyclo-      g10/00  (CH3COOH)2     
  n10/84  C4H9,n-butyl     n10/84  C4H9,i-butyl     g 1/93  C4H9,s-butyl   
  g 1/93  C4H9,t-butyl     g12/00  C4H10,n-butane   g 8/00  C4H10,isobutane
  g 6/01  C4N2             g 8/00  *C5              g 5/90  C5H6,1,3cyclo- 
  g 1/93  C5H8,cyclo-      n 4/87  C5H10,1-pentene  g 2/01  C5H10,cyclo-   
  n10/84  C5H11,pentyl     g 1/93  C5H11,t-pentyl   n10/85  C5H12,n-pentane
  n10/85  C5H12,i-pentane  n10/85  CH3C(CH3)2CH3    g 2/93  C6H2           
  g11/00  C6H5,phenyl      g 8/00  C6H5O,phenoxy    g 8/00  C6H6           
  g 8/00  C6H5OH,phenol    g 1/93  C6H10,cyclo-     n 4/87  C6H12,1-hexene 
  g 6/90  C6H12,cyclo-     n10/83  C6H13,n-hexyl    g 6/01  C6H14,n-hexane 
  g 7/01  C7H7,benzyl      g 1/93  C7H8             g12/00  C7H8O,cresol-mx
  n 4/87  C7H14,1-heptene  n10/83  C7H15,n-heptyl   n10/85  C7H16,n-heptane
  n10/85  C7H16,2-methylh  n 4/89  C8H8,styrene     n10/86  C8H10,ethylbenz
  n 4/87  C8H16,1-octene   n10/83  C8H17,n-octyl    n 4/85  C8H18,n-octane 
  n 4/85  C8H18,isooctane  n10/83  C9H19,n-nonyl    g 3/01  C10H8,naphthale
  n10/83  C10H21,n-decyl   g 8/00  C12H9,o-bipheny  g 8/00  C12H10,biphenyl
  g 6/97  *H               g 6/01  HCN              g 1/01  HCO            
  tpis89  HCCN             g 6/01  HCCO             g 6/01  HNC            
  g 7/00  HNCO             g10/01  HNO              tpis89  HNO2           
  g 5/99  HNO3             g 4/02  HO2              tpis78  *H2            
  g 5/01  HCHO,formaldehy  g 6/01  HCOOH            g 8/89  H2O            
  g 6/99  H2O2             g 6/01  (HCOOH)2         g 5/97  *N             
  g 6/01  NCO              g 4/99  *NH              g 3/01  NH2            
  tpis89  NH3              tpis89  NH2OH            tpis89  *NO            
  g 4/99  NO2              j12/64  NO3              tpis78  *N2            
  g 6/01  NCN              g 5/99  N2H2             tpis89  NH2NO2         
  g 4/99  N2H4             g 4/99  N2O              g 4/99  N2O3           
  tpis89  N2O4             g 4/99  N2O5             tpis89  N3             
  g 4/99  N3H              g 5/97  *O               g 4/02  *OH            
  tpis89  *O2              g 8/01  O3               n 4/83  C(gr)          
  n 4/83  C(gr)            n 4/83  C(gr)            g11/99  H2O(cr)        
  g 8/01  H2O(L)           g 8/01  H2O(L)         

 O/F =   6.910912

                       EFFECTIVE FUEL     EFFECTIVE OXIDANT        MIXTURE
 ENTHALPY                  h(2)/R              h(1)/R               h0/R
 (KG-MOL)(K)/KG       -0.25816719E+00      0.22298441E+03      0.19476483E+03

 KG-FORM.WT./KG             bi(2)               bi(1)               b0i
  *C                   0.70974455E-01      0.00000000E+00      0.89717159E-02
  *H                   0.14638481E+00      0.00000000E+00      0.18504164E-01
  *N                   0.00000000E+00      0.45441326E-01      0.39697194E-01
  *O                   0.00000000E+00      0.22720663E-01      0.19848597E-01

 POINT ITN      T            C           H           N           O 

   1   26    3173.489     -16.942     -11.177     -13.852     -16.814

 Pinf/Pt = 1.735984
   2    5    3003.292     -17.246     -11.377     -14.017     -17.123

 Pinf/Pt = 1.735577
   2    2    3003.363     -17.246     -11.377     -14.017     -17.123

   3    5    2690.675     -17.667     -11.733     -14.321     -17.912






              THEORETICAL ROCKET PERFORMANCE ASSUMING EQUILIBRIUM

           COMPOSITION DURING EXPANSION FROM INFINITE AREA COMBUSTOR

 Pin =    72.0 PSIA
 CASE =                

             REACTANT                    WT FRACTION      ENERGY      TEMP
                                          (SEE NOTE)     KJ/KG-MOL      K  
 FUEL        C32H66(a)                    1.0000000      -967.800    298.150
 OXIDANT     N2O                          1.0000000     81600.000    298.150

 O/F=    6.91091  %FUEL= 12.640768  R,EQ.RATIO= 1.370148  PHI,EQ.RATIO= 1.370148

                 CHAMBER   THROAT     EXIT
 Pinf/P            1.0000   1.7356   4.8973
 P, BAR            4.9621   2.8591   1.0132
 T, K             3173.49  3003.36  2690.68
 RHO, KG/CU M    4.6883-1 2.8921-1 1.1684-1
 H, KJ/KG         1619.37  1055.31   93.521
 U, KJ/KG          560.97   66.722  -773.65
 G, KJ/KG        -32782.8 -31502.6 -29074.7
 S, KJ/(KG)(K)    10.8405  10.8405  10.8405

 M, (1/n)          24.930   25.260   25.798
 (dLV/dLP)t      -1.02560 -1.02036 -1.01018
 (dLV/dLT)p        1.5065   1.4282   1.2404
 Cp, KJ/(KG)(K)    5.0532   4.6609   3.4962
 GAMMAs            1.1418   1.1411   1.1516
 SON VEL,M/SEC     1099.3   1062.1    999.3
 MACH NUMBER        0.000    1.000    1.748

 PERFORMANCE PARAMETERS

 Ae/At                     1.00000   1.5049
 CSTAR, M/SEC               1615.4   1615.4
 CF                         0.6575   1.0814
 Ivac, M/SEC                1992.9   2243.3
 Isp, M/SEC                 1062.1   1746.9


 MOLE FRACTIONS

 *C              9.916-11 2.404-11 1.237-12
 *CH             1.766-11 4.134-12 2.183-13
 CH2             1.687-11 4.639-12 3.819-13
 CH3             1.529-11 5.266-12 7.829-13
 CH2OH           2.487-12 8.067-13 9.546-14
 CH3O            6.555-13 1.912-13 1.813-14
 CH4             2.088-12 8.292-13 1.890-13
 CH3OH           8.000-14 2.839-14 4.546-15
 CH3OOH          1.634-18 3.252-19 1.353-20
 *CN             5.707 -9 1.946 -9 2.263-10
 CNN             4.947-15 8.236-16 2.185-17
 *CO             1.6574-1 1.6042-1 1.5019-1
 *CO2            5.7923-2 6.6203-2 8.1263-2
 COOH            6.9970-7 4.0459-7 1.2521-7
 *C2             1.554-16 1.955-17 3.148-19
 C2H             2.538-15 4.116-16 1.276-17
 C2H2,acetylene  2.284-14 5.667-15 4.899-16
 C2H2,vinylidene 1.050-16 1.802-17 6.943-19
 CH2CO,ketene    2.056-13 6.147-14 7.223-15
 O(CH)2O         1.633-15 4.463-16 3.928-17
 HO(CO)2OH       2.518-16 8.809-17 1.105-17
 C2H3,vinyl      3.413-18 5.520-19 2.079-20
 CH3CN           1.406-18 2.800-19 1.795-20
 CH3CO,acetyl    5.094-17 1.024-17 5.651-19
 C2H4            7.029-19 1.419-19 9.605-21
 C2H4O,ethylen-o 5.709-22 9.319-23 3.634-24
 CH3CHO,ethanal  5.394-19 1.140-19 7.750-21
 CH3COOH         2.586-19 6.138-20 4.898-21
 OHCH2COOH       3.214-20 6.637-21 3.587-22
 C2H5            1.865-22 2.430-23 7.035-25
 C2H6            4.582-24 6.786-25 2.880-26
 CH3N2CH3        4.836-34 2.442-35 0.000  0
 C2H5OH          8.584-25 1.146-25 3.536-27
 CH3OCH3         1.969-26 2.366-27 5.803-29
 CH3O2CH3        5.121-31 3.493-32 2.289-34
 CCN             5.985-19 6.014-20 6.427-22
 CNC             4.538-17 5.870-18 1.085-19
 OCCN            3.866-13 9.168-14 5.732-15
 C2N2            3.808-15 8.218-16 5.006-17
 C2O             5.678-12 1.475-12 1.045-13
 *C3             3.070-21 2.571-22 2.217-24
 C3H3,1-propynl  7.181-26 5.485-27 5.298-29
 C3H3,2-propynl  3.380-23 3.256-24 5.208-26
 C3H4,allene     1.302-25 1.252-26 2.217-28
 C3H4,propyne    2.726-25 2.665-26 4.885-28
 C3H4,cyclo-     3.762-27 3.012-28 3.584-30
 C3H5,allyl      3.714-28 2.763-29 3.112-31
 C3H6,propylene  1.051-29 8.029-31 1.060-32
 C3H6,cyclo-     8.757-32 6.137-33 6.741-35
 C3H6O,propylox  5.631-33 3.529-34 2.768-36
 C3H6O,acetone   1.928-30 1.613-31 2.355-33
 C3H6O,propanal  3.004-30 2.310-31 2.814-33
 C3H7,n-propyl   1.098-33 5.230-35 0.000  0
 C3H7,i-propyl   6.698-34 3.283-35 0.000  0
 C3H8            2.587-35 1.407-36 0.000  0
 C3H8O,1propanol 3.990-36 0.000  0 0.000  0
 C3H8O,2propanol 2.887-36 0.000  0 0.000  0
 CNCOCN          1.422-22 1.492-23 2.254-25
 C3O2            2.767-15 6.915-16 5.350-17
 *C4             3.354-29 1.139-30 1.837-33
 C4H2,butadiyne  3.974-27 2.561-28 2.022-30
 C4H4,1,3-cyclo- 1.669-34 6.846-36 0.000  0
 C4H6,butadiene  9.491-36 0.000  0 0.000  0
 C4H6,1butyne    1.659-36 0.000  0 0.000  0
 C4H6,2butyne    7.694-37 0.000  0 0.000  0
 C4N2            5.318-28 3.001-29 1.694-31
 *C5             3.830-34 8.159-36 0.000  0
 *H              2.7434-2 2.1553-2 1.2081-2
 HCN             9.5401-8 4.6057-8 1.2588-8
 HCO             1.4528-6 7.5115-7 1.9981-7
 HCCN            3.364-19 3.725-20 5.459-22
 HCCO            2.437-13 6.048-14 4.280-15
 HNC             1.8989-8 8.0419-9 1.6522-9
 HNCO            7.2863-8 3.9837-8 1.2950-8
 HNO             2.3908-6 1.2172-6 2.6347-7
 HNO2            1.6030-7 7.9571-8 1.4697-8
 HNO3            7.229-12 2.612-12 2.209-13
 HO2             9.9030-6 5.4093-6 1.1390-6
 *H2             5.4487-2 5.2014-2 4.8994-2
 HCHO,formaldehy 1.8583-8 9.8233-9 3.0418-9
 HCOOH           4.5832-8 2.7351-8 1.0058-8
 H2O             1.4737-1 1.5903-1 1.7758-1
 H2O2            6.9296-7 3.8624-7 9.3844-8
 (HCOOH)2        7.827-22 1.741-22 1.014-23
 *N              1.2594-5 5.9330-6 1.0703-6
 NCO             3.0656-8 1.3066-8 2.2411-9
 *NH             2.4287-6 1.1089-6 2.0620-7
 NH2             6.0758-7 2.9727-7 7.1061-8
 NH3             2.7082-7 1.6377-7 6.8561-8
 NH2OH           1.067-10 4.114-11 5.954-12
 *NO             9.4626-3 6.8052-3 2.7819-3
 NO2             2.2574-6 1.1958-6 2.2997-7
 NO3             4.210-12 1.324-12 7.487-14
 *N2             4.9008-1 4.9796-1 5.1067-1
 NCN             3.312-13 7.341-14 3.623-15
 N2H2            5.313-11 1.813-11 2.167-12
 NH2NO2          2.745-16 6.665-17 3.145-18
 N2H4            7.925-16 1.957-16 1.409-17
 N2O             9.5433-7 5.1967-7 1.2622-7
 N2O3            1.249-13 2.865-14 8.837-16
 N2O4            9.806-19 1.689-19 2.554-21
 N2O5            4.520-22 5.079-23 2.769-25
 N3              2.958-11 8.774-12 6.758-13
 N3H             5.551-12 1.660-12 1.441-13
 *O              8.4161-3 5.5394-3 1.7389-3
 *OH             3.0148-2 2.3766-2 1.2148-2
 *O2             8.9074-3 6.6959-3 2.5459-3
 O3              3.679 -9 1.256 -9 8.120-11

  * THERMODYNAMIC PROPERTIES FITTED TO 20000.K

    PRODUCTS WHICH WERE CONSIDERED BUT WHOSE MOLE FRACTIONS
    WERE LESS THAN 1.000000E-51 FOR ALL ASSIGNED CONDITIONS

 C4H6,cyclo-     C4H8,1-butene   C4H8,cis2-buten C4H8,tr2-butene C4H8,isobutene 
 C4H8,cyclo-     (CH3COOH)2      C4H9,n-butyl    C4H9,i-butyl    C4H9,s-butyl   
 C4H9,t-butyl    C4H10,n-butane  C4H10,isobutane C5H6,1,3cyclo-  C5H8,cyclo-    
 C5H10,1-pentene C5H10,cyclo-    C5H11,pentyl    C5H11,t-pentyl  C5H12,n-pentane
 C5H12,i-pentane CH3C(CH3)2CH3   C6H2            C6H5,phenyl     C6H5O,phenoxy  
 C6H6            C6H5OH,phenol   C6H10,cyclo-    C6H12,1-hexene  C6H12,cyclo-   
 C6H13,n-hexyl   C6H14,n-hexane  C7H7,benzyl     C7H8            C7H8O,cresol-mx
 C7H14,1-heptene C7H15,n-heptyl  C7H16,n-heptane C7H16,2-methylh C8H8,styrene   
 C8H10,ethylbenz C8H16,1-octene  C8H17,n-octyl   C8H18,n-octane  C8H18,isooctane
 C9H19,n-nonyl   C10H8,naphthale C10H21,n-decyl  C12H9,o-bipheny C12H10,biphenyl
 C(gr)           H2O(cr)         H2O(L)         

 NOTE. WEIGHT FRACTION OF FUEL IN TOTAL FUELS AND OF OXIDANT IN TOTAL OXIDANTS



